18
   16   17
C    0.0000 0.0000 0.0000
C    1.1031 0.4970 0.7050
C    -1.0893 -0.5999 0.6743
C    -2.1709 -1.2807 0.0350
C    -3.2947 -1.7755 0.7247
H    1.8384 0.8276 2.5746
H    -2.1307 -1.4033 3.7021
H    -4.0293 -2.0995 2.5615
H    -4.0293 -2.0995 0.2540
H    1.8384 0.8276 0.2408
H    -2.1307 -1.4033 -0.8867
C    0.0000 0.0000 2.8154
C    1.1031 0.4970 2.1105
C    -1.0893 -0.5999 2.1411
C    -2.1709 -1.2807 2.7804
C    -3.2947 -1.7755 2.0908
X    0.0183 0.0985 -0.7378
X    0.0183 0.0985 3.5532
   0    1 A   
   0    2 A   
   0   16 S   
   1    9 S   
   1   12 A   
   2    3 A   
   2   13 A   
   3    4 A   
   3   10 S   
   4    8 S   
   4   15 A   
   5   12 S   
   6   14 S   
   7   15 S   
  11   12 A   
  11   13 A   
  11   17 S   
  13   14 A   
  14   15 A   
