9
    7    8
O    0.0000 0.0000 0.0000
C    1.0896 0.3657 -0.7650
C    2.0029 -0.6312 -0.7898
C    1.4958 -1.6730 0.0165
C    0.2854 -1.2511 0.4885
H    2.8105 -0.6313 -1.2508
H    1.9067 -2.4879 0.1913
X    1.2079 0.8923 -1.3407
X    -0.1362 -1.2435 1.0796
   0    1 A   
   0    4 A   
   1    2 A   
   1    7 S   
   2    3 A   
   2    5 S   
   3    4 A   
   3    6 S   
   4    8 S   
