10
    8    9
H    0.0000 0.0000 0.0000
H    -0.1811 2.0614 1.8400
H    -0.1701 1.3753 4.1573
H    0.1262 -0.7231 2.3886
C    -0.0631 0.8961 0.2732
C    -0.0892 1.1623 1.5832
C    -0.0466 0.4747 3.9173
C    0.0123 0.1775 2.6325
X    -0.0953 1.4218 -0.2441
X    0.0130 -0.0266 4.4662
   0    4 S   
   1    5 S   
   2    6 S   
   3    7 S   
   4    5 D   
   4    8 S   
   5    7 S   
   6    7 D   
   6    9 S   
