20
   18   19
C    0.0000 0.0000 0.0000
H    1.2500 -1.4034 0.7716
H    -0.1372 0.4789 0.8086
H    0.3834 -1.8718 -3.1502
H    -0.8806 2.2444 0.6873
H    -1.8875 4.2742 0.5711
H    -3.1890 3.5028 -3.0946
C    -1.3358 2.5021 -0.1061
C    0.9617 -1.8353 -1.1961
C    0.7980 -1.1205 -0.0202
N    -2.0855 1.9762 -2.3164
C    -0.5923 0.4099 -1.1506
C    0.2837 -1.3942 -2.3332
C    -1.3810 1.6679 -1.1641
N    -0.5034 -0.2921 -2.2928
C    -1.9296 3.6926 -0.1803
C    -2.5983 4.1065 -1.2887
C    -2.6933 3.2415 -2.3281
X    1.4137 -2.4263 -1.1685
X    -2.8819 4.7891 -1.4036
   0    2 S   
   0    9 A   
   0   11 A   
   1    9 S   
   3   12 S   
   4    7 S   
   5   15 S   
   6   17 S   
   7   13 A   
   7   15 A   
   8    9 A   
   8   12 A   
   8   18 S   
  10   13 A   
  10   17 A   
  11   13 S   
  11   14 A   
  12   14 A   
  15   16 A   
  16   17 A   
  16   19 S   
