20
   18   19
C    0.0000 0.0000 0.0000
C    0.7016 0.7362 2.1530
H    4.3138 2.3644 1.1287
H    3.3528 1.6396 -1.3051
H    2.4553 1.7026 2.1812
H    1.2869 0.4706 -1.4419
H    -2.4683 -1.0952 0.4995
H    -1.5073 -0.3704 2.9332
H    -0.6098 -0.4334 -0.5531
H    0.5585 0.7985 3.0701
C    -2.5150 -0.9836 1.4222
C    4.3605 2.2528 0.2060
C    3.3153 1.6986 -0.3767
C    2.0957 1.1594 0.2540
C    1.8455 1.2692 1.6282
C    1.1439 0.5330 -0.5248
C    -1.4698 -0.4295 2.0049
C    -0.2502 0.1098 1.3742
X    -3.1252 -1.1573 1.7784
X    4.9707 2.4264 -0.1503
   0    8 S   
   0   15 A   
   0   17 A   
   1    9 S   
   1   14 A   
   1   17 A   
   2   11 S   
   3   12 S   
   4   14 S   
   5   15 S   
   6   10 S   
   7   16 S   
  10   16 D   
  10   18 S   
  11   12 D   
  11   19 S   
  12   13 S   
  13   14 A   
  13   15 A   
  16   17 S   
  18   10 S   
  19   11 S   
