8
    6    7
C    0.0000 0.0000 0.0000
C    -1.4738 -1.5950 -1.3217
N    0.4904 -1.1928 -0.3022
N    -0.2712 -2.0270 -0.9844
N    -1.9929 -0.4488 -0.9472
N    -1.2341 0.3877 -0.2433
X    0.4335 0.3808 0.4632
X    -1.8970 -1.9575 -1.8174
   0    2 A   
   0    5 A   
   0    6 S   
   1    3 A   
   1    4 A   
   1    7 S   
   2    3 A   
   4    5 A   
