26
   24   25
C    0.0000 0.0000 0.0000
C    -2.0810 1.2015 -1.6991
C    -5.0956 2.9419 -4.1605
C    -3.0146 1.7405 -2.4614
H    -1.2156 -1.6226 -0.1707
H    -3.3014 -1.6927 -1.4232
H    0.7974 1.8640 -0.1707
H    -0.1848 3.7055 -1.4232
H    -5.8930 1.0780 -3.9898
H    -4.9108 -0.7636 -2.7373
H    -3.8800 4.5645 -3.9898
H    -1.7942 4.6347 -2.7373
C    -1.1134 -0.7327 -0.4228
C    -2.0737 -0.1109 -1.2307
C    -3.2018 -0.8015 -1.6773
C    0.0778 1.3306 -0.4228
C    -0.9408 1.8513 -1.2307
C    -0.9068 3.1735 -1.6773
C    -5.1734 1.6113 -3.7377
C    -4.1547 1.0906 -2.9298
C    -4.1888 -0.2316 -2.4832
C    -3.9821 3.6746 -3.7377
C    -3.0219 3.0528 -2.9298
C    -1.8938 3.7434 -2.4832
X    0.4728 -0.1731 0.4859
X    -5.5684 3.1150 -4.6465
   0   12 A   
   0   15 A   
   0   24 S   
   1    3 A   
   1   13 A   
   1   16 A   
   2   18 A   
   2   21 A   
   2   25 S   
   3   19 A   
   3   22 A   
   4   12 S   
   5   14 S   
   6   15 S   
   7   17 S   
   8   18 S   
   9   20 S   
  10   21 S   
  11   23 S   
  12   13 A   
  13   14 A   
  14   20 A   
  15   16 A   
  16   17 A   
  17   23 A   
  18   19 A   
  19   20 A   
  21   22 A   
  22   23 A   
