18
   16   17
H    0.0000 0.0000 0.0000
H    -0.3872 2.2819 0.2500
H    -0.2081 4.6147 -0.6541
H    1.0555 5.2043 -4.4715
H    1.2300 2.9199 -4.7930
H    1.1618 0.6029 -3.8509
C    0.6392 0.1113 -1.9645
C    0.1682 0.5977 -0.7188
C    -0.0398 1.9496 -0.5693
C    0.2560 2.8558 -1.6274
C    0.1162 4.2628 -1.4734
C    0.4415 5.1180 -2.4958
C    0.8584 4.6081 -3.7594
C    0.9722 3.2585 -3.9424
C    0.7079 2.3499 -2.8709
C    0.8778 0.9572 -3.0160
X    0.7267 -0.6309 -2.0415
X    0.4611 5.8603 -2.4076
   0    7 S   
   1    8 S   
   2   10 S   
   3   12 S   
   4   13 S   
   5   15 S   
   6    7 A   
   6   15 A   
   6   16 S   
   7    8 A   
   8    9 A   
   9   10 A   
   9   14 A   
  10   11 A   
  11   12 A   
  11   17 S   
  12   13 A   
  13   14 A   
  14   15 A   
