22
   18   19   20   21
C    0.0000 0.0000 0.0000
C    0.8132 -1.3080 0.0002
C    2.3530 -1.2568 0.0002
C    3.0784 0.1012 0.0002
C    2.2648 1.4090 0.0002
C    0.7260 1.3578 0.0000
C    4.6174 0.1576 0.0004
C    5.3394 1.5176 0.0004
C    6.8784 1.5750 0.0000
C    7.6956 0.2700 0.0000
C    6.9734 -1.0904 0.0000
C    5.4344 -1.1478 0.0002
H    -1.1394 -0.0372 -0.0004
H    2.9554 -2.2246 0.0002
H    2.8018 2.4146 0.0002
H    4.7330 2.4830 0.0008
H    8.8348 0.3108 0.0002
H    4.9016 -2.1556 0.0004
X    0.4596 -1.9694 0.0003
X    0.3298 1.9946 -0.0001
X    7.2295 2.2377 -0.0002
X    7.3717 -1.7259 -0.0001
   0    1 A   
   0    5 A   
   0   12 S   
   1    2 A   
   2    3 A   
   2   13 S   
   3    4 A   
   3    6 S   
   4    5 A   
   4   14 S   
   6    7 A   
   6   11 A   
   7    8 A   
   7   15 S   
   8    9 A   
   9   10 A   
   9   16 S   
  10   11 A   
  11   17 S   
  18    1 S   
  19    5 S   
  20    8 S   
  21   10 S   
