9
    6    7    8
N    0.0000 0.0000 0.0000
N    0.0125 2.3472 -0.1177
N    0.4996 1.0717 -2.0407
C    0.3280 0.0056 -1.2778
C    -0.1536 1.2280 0.5275
C    0.3501 2.2272 -1.4104
X    0.4069 -0.6670 -1.6125
X    -0.3709 1.2825 1.2239
X    0.4505 2.8566 -1.7914
   0    3 A   
   0    4 A   
   1    4 A   
   1    5 A   
   2    3 A   
   2    5 A   
   3    6 S   
   4    7 S   
   5    8 S   
