26
   20   21   22   23   24   25
O    0.0000 0.0000 0.0000
Ho   -2.1433 -1.1223 3.3759
C    -1.4796 3.6640 -1.3785
Ho   -1.1682 1.9577 0.7534
O    1.2557 1.7276 0.5162
C    -3.4024 0.1632 0.3492
C    1.1481 0.5367 0.1884
O    -2.6172 -1.8410 5.5936
C    -1.8318 -2.8286 5.5079
O    -1.1771 -3.0250 4.4725
O    -0.2230 -0.2033 4.5904
O    -3.3115 0.8354 4.1294
O    -4.5672 -0.8921 3.6132
O    -0.6894 0.9323 2.8075
C    0.0909 0.6722 3.7801
C    -4.4595 0.2988 3.9410
O    -0.6942 2.6764 -1.4643
O    -2.1344 3.8604 -0.3431
O    -2.6221 -0.0968 1.3218
O    -3.0885 1.0388 -0.4610
X    -1.5543 4.1357 -1.9495
X    -4.0615 -0.2137 0.3627
X    1.7550 0.0795 0.0948
X    -1.7572 -3.3002 6.0789
X    0.7501 1.0491 3.7667
X    -5.0665 0.7559 4.0346
   0    6 A   
   0    3 S   
   1    7 S   
   1    9 S   
   1   10 S   
   1   11 S   
   1   12 S   
   1   13 S   
   1   18 S   
   2   16 A   
   2   17 A   
   2   20 S   
   3    4 S   
   3   13 S   
   3   16 S   
   3   17 S   
   3   18 S   
   3   19 S   
   4    6 A   
   5   18 S   
   5   19 D   
   5   21 S   
   6   22 S   
   7    8 A   
   8    9 A   
   8   23 S   
  10   14 D   
  11   15 A   
  12   15 A   
  13   14 S   
  14   24 S   
  15   25 S   
