26
   20   21   22   23   24   25
Sm   0.0000 0.0000 0.0000
O    1.0711 3.0177 1.3710
Sm   -0.1454 4.4344 -0.0500
C    1.5504 -1.9797 -1.3413
O    0.4068 -1.6734 -1.7801
O    -1.7772 3.2637 1.2138
C    1.9475 2.2680 -1.7831
O    -2.1660 5.9333 0.2291
O    -1.5262 1.0659 1.5383
O    -0.5522 6.1077 1.7301
O    -1.6246 3.5831 -1.7565
C    1.6134 2.0706 1.9901
O    -1.2165 1.4167 -1.4210
O    1.6319 1.1706 -1.2638
C    -1.7588 2.3638 -2.0401
O    2.0206 -1.4990 -0.2791
O    1.3808 3.3684 -1.5883
C    -1.6957 6.4141 1.2913
C    -2.0929 2.1664 1.7331
O    1.4792 0.8512 1.7065
X    2.2410 -2.1553 -1.5418
X    2.7071 2.6123 -1.8483
X    1.7899 2.0821 2.6518
X    -1.9353 2.3523 -2.7018
X    -2.3864 6.5896 1.4918
X    -2.8525 1.8220 1.7983
   0    4 S   
   0    8 S   
   0   12 S   
   0   13 S   
   0   15 S   
   0   19 S   
   1   11 A   
   1    2 S   
   2    5 S   
   2    7 S   
   2    9 S   
   2   10 S   
   2   16 S   
   3    4 A   
   3   15 A   
   3   20 S   
   5   18 A   
   6   13 A   
   6   16 A   
   6   21 S   
   7   17 A   
   8   18 A   
   9   17 A   
  10   14 A   
  11   19 A   
  11   22 S   
  12   14 A   
  14   23 S   
  17   24 S   
  18   25 S   
