35
   27   28   29   30   31   32   33   34
O    0.0000 0.0000 0.0000
O    -0.7942 -1.9639 -0.5297
O    -1.6377 4.3680 -0.4753
O    -2.0973 2.2147 -0.3290
O    0.2986 2.7255 1.3024
O    1.2597 4.6436 1.5804
O    -2.7629 -0.3068 1.1554
O    -3.6848 -2.1907 1.5154
O    -0.4677 0.1555 2.8800
O    -0.6133 -2.0299 2.8453
O    -1.4569 -4.4087 1.3099
O    -2.5371 -4.6329 -0.5741
O    -1.7825 4.4547 2.9516
O    -2.4304 2.3925 2.4976
C    -0.1597 -0.9549 -0.7609
O    -0.9705 6.8102 1.3579
O    0.2044 7.0255 -0.4142
C    -2.1373 3.2881 -0.8759
C    -1.8816 -5.0933 0.3862
Co   -1.6883 -2.4327 1.1954
Co   -0.7496 4.8505 1.2680
Co   -1.2151 1.2034 1.2588
C    -0.6640 7.4316 0.4997
C    -0.1922 -0.9522 3.2567
C    1.3293 3.4032 1.5103
C    -3.7893 -0.9390 1.4351
C    -2.3406 3.4106 3.2249
X    0.2047 -0.9452 -1.4377
X    -2.5246 3.3314 -1.5172
X    -1.8210 -5.8242 0.4627
X    -0.6502 8.2057 0.5004
X    0.1901 -0.9565 3.9104
X    2.0065 3.0737 1.6053
X    -4.4441 -0.5911 1.4926
X    -2.7167 3.4142 3.8845
   0   14 A   
   0   21 S   
   1   14 A   
   1   19 S   
   2   17 A   
   2   20 S   
   3   17 A   
   3   21 S   
   4   20 S   
   4   21 S   
   4   24 S   
   5   20 S   
   5   24 D   
   6   19 S   
   6   21 S   
   6   25 S   
   7   19 S   
   7   25 D   
   8   21 S   
   8   23 A   
   9   19 S   
   9   23 A   
  10   18 S   
  10   19 S   
  11   18 D   
  12   20 S   
  12   26 A   
  13   21 S   
  13   26 A   
  14   27 S   
  15   20 S   
  15   22 S   
  16   22 D   
  17   28 S   
  18   29 S   
  22   30 S   
  23   31 S   
  24   32 S   
  25   33 S   
  26   34 S   
