26
   20   21   22   23   24   25
Gd   0.0000 0.0000 0.0000
Gd   0.0922 -3.8191 3.7764
C    2.0220 -5.1331 5.4534
C    -1.6210 -2.6138 5.6793
O    -1.5129 -1.6681 0.5169
O    -1.4183 -2.8196 2.4188
O    -0.7642 1.1425 -2.1181
O    -2.1774 1.1005 -0.4591
O    1.9617 -0.0316 -1.5172
O    0.6416 -1.7906 -1.5609
O    1.6051 -2.1509 3.2595
O    1.5105 -0.9995 1.3576
O    0.8564 -4.9616 5.8945
O    2.2696 -4.9195 4.2355
O    -1.8695 -3.7875 5.2935
C    -2.0376 -2.1961 1.5270
O    -0.5494 -2.0285 5.3372
C    -1.9298 1.3140 -1.6770
C    1.7132 -1.2052 -1.9029
C    2.1298 -1.6230 2.2494
X    2.5839 -5.1744 6.0107
X    -2.3645 -2.6211 5.9459
X    -2.8275 -2.4830 1.4140
X    -2.4917 1.3554 -2.2344
X    2.4567 -1.1979 -2.1696
X    2.9197 -1.3360 2.3623
   0    4 S   
   0    6 S   
   0    7 S   
   0    8 S   
   0    9 S   
   0   11 S   
   1    5 S   
   1   10 S   
   1   12 S   
   1   13 S   
   1   14 S   
   1   16 S   
   2   12 A   
   2   13 A   
   2   20 S   
   3   14 A   
   3   16 A   
   3   21 S   
   4   15 A   
   5   15 A   
   6   17 A   
   7   17 A   
   8   18 A   
   9   18 A   
  10   19 A   
  11   19 A   
  15   22 S   
  17   23 S   
  18   24 S   
  19   25 S   
