26
   20   21   22   23   24   25
Y    0.0000 0.0000 0.0000
Y    3.1696 0.0480 3.1364
C    4.9481 -1.3660 4.6811
O    1.3774 -1.3718 1.2610
O    2.5646 -2.1912 2.9156
O    2.2218 0.1471 -1.0596
O    0.8401 -1.4464 -1.6944
O    -2.1040 1.1920 -0.3197
O    -0.7284 0.9458 -2.0599
O    1.7923 1.4199 1.8754
O    0.6050 2.2393 0.2208
O    0.9478 -0.0991 4.1960
O    2.3295 1.4945 4.8308
O    5.2736 -1.1439 3.4562
C    1.7184 -2.3297 1.9930
C    1.9892 -0.8916 -1.7274
O    3.8980 -0.8978 5.1963
C    -1.7785 1.4141 -1.5447
C    1.4512 2.3777 1.1434
C    1.1804 0.9396 4.8639
X    5.3508 -1.8720 5.0449
X    1.5957 -2.9843 1.5710
X    2.7183 -0.8466 -1.8817
X    -2.1811 1.9200 -1.9085
X    1.5739 3.0324 1.5654
X    0.4513 0.8946 5.0181
   0    3 S   
   0    5 S   
   0    6 S   
   0    7 S   
   0    8 S   
   0    9 S   
   0   10 S   
   1    3 S   
   1    4 S   
   1    9 S   
   1   11 S   
   1   12 S   
   1   13 S   
   1   16 S   
   2   13 A   
   2   16 A   
   2   20 S   
   3   14 S   
   4   14 D   
   5   15 A   
   6   15 A   
   7   17 A   
   8   17 A   
   9   18 S   
  10   18 D   
  11   19 A   
  12   19 A   
  14   21 S   
  15   22 S   
  17   23 S   
  18   24 S   
  19   25 S   
