26
   20   21   22   23   24   25
Ho   0.0000 0.0000 0.0000
Ho   -0.1125 4.2824 -0.0572
C    -1.7044 2.2791 -2.0206
C    1.9112 2.1998 -1.7767
C    1.4349 -1.9770 -1.3001
C    1.5919 2.0033 1.9634
C    -2.0237 2.0826 1.7195
C    -1.5474 6.2595 1.2429
O    -1.5400 3.4856 -1.7276
O    -1.1971 1.3128 -1.4136
O    0.3323 -1.5908 -1.7907
O    1.8925 -1.5130 -0.2445
O    1.6066 1.1041 -1.2370
O    1.3283 3.2802 -1.5790
O    1.4274 0.7969 1.6704
O    1.0846 2.9696 1.3564
O    -0.4449 5.8732 1.7335
O    -2.0050 5.7954 0.1873
O    -1.7191 3.1783 1.1798
O    -1.4408 1.0022 1.5218
X    -1.8830 2.2862 -2.6783
X    2.6767 2.5552 -1.8186
X    2.1286 -2.1550 -1.4888
X    1.7705 1.9962 2.6212
X    -2.7892 1.7273 1.7614
X    -2.2411 6.4374 1.4316
   0    9 S   
   0   10 S   
   0   11 S   
   0   12 S   
   0   14 S   
   0   19 S   
   1    8 S   
   1   13 S   
   1   15 S   
   1   16 S   
   1   17 S   
   1   18 S   
   2    8 A   
   2    9 A   
   2   20 S   
   3   12 A   
   3   13 A   
   3   21 S   
   4   10 A   
   4   11 A   
   4   22 S   
   5   14 A   
   5   15 A   
   5   23 S   
   6   18 A   
   6   19 A   
   6   24 S   
   7   16 A   
   7   17 A   
   7   25 S   
