40
   34   35   36   37   38   39
C    0.0000 0.0000 0.0000
C    0.3282 4.2743 2.8250
C    -2.8812 -0.2003 3.2151
C    -3.7984 -0.7988 4.0509
C    -4.2227 -0.1543 5.1640
C    -3.6945 1.0803 5.3894
C    -2.7598 1.6048 4.5318
C    1.9426 0.9823 2.8973
Zn   1.3792 2.5226 0.5810
Zn   -0.9384 1.7756 2.2203
C    -1.4076 3.3807 -0.1682
C    4.6841 4.4443 -2.3559
C    3.5374 3.8949 -2.8099
C    2.6394 3.3242 -1.9287
C    3.9742 3.6896 -0.2035
C    4.9150 4.3341 -1.0039
N    -2.3541 0.9845 3.4522
H    -2.6190 -0.6544 2.4467
H    -4.1262 -1.6441 3.8491
N    2.8277 3.2668 -0.6457
H    -2.3979 2.4385 4.7268
H    -3.9704 1.5695 6.1293
O    -0.8666 0.2524 0.8710
O    0.9497 0.7432 -0.3128
O    -0.5435 3.4881 3.2235
O    1.1356 4.0562 1.8917
O    2.5278 1.5925 1.9556
O    0.7163 0.9576 3.0823
O    -1.9455 2.8654 0.8341
O    -0.1992 3.2932 -0.4826
H    3.3520 3.8999 -3.7213
H    1.8569 2.9619 -2.2735
H    4.1793 3.5552 0.6945
H    5.6929 4.6858 -0.6289
X    0.0929 -0.7722 -0.1986
X    0.2328 4.9962 3.0959
X    -5.0588 -0.4924 5.3258
X    2.3523 0.5888 3.3771
X    -1.8293 3.7637 -0.6498
X    5.1286 5.1078 -2.8336
   0   22 A   
   0   23 A   
   0   34 S   
   1   24 A   
   1   25 A   
   1   35 S   
   2    3 A   
   2   16 A   
   2   17 S   
   3    4 A   
   3   18 S   
   4    5 A   
   4   36 S   
   5    6 A   
   5   21 S   
   6   16 A   
   6   20 S   
   7   26 A   
   7   27 A   
   7   37 S   
   8    9 S   
   8   19 S   
   8   23 S   
   8   25 S   
   8   26 S   
   8   29 S   
   9   16 S   
   9   22 S   
   9   24 S   
   9   27 S   
   9   28 S   
  10   28 A   
  10   29 A   
  10   38 S   
  11   12 A   
  11   15 A   
  11   39 S   
  12   13 A   
  12   30 S   
  13   19 A   
  13   31 S   
  14   15 A   
  14   19 A   
  14   32 S   
  15   33 S   
