26
   20   21   22   23   24   25
C    0.0000 0.0000 0.0000
C    5.0497 1.1631 0.1300
C    3.5996 5.0718 -0.2544
C    1.5724 -4.1218 -0.3259
Eu   2.2843 2.6324 0.2463
Eu   2.8667 -1.6137 -0.1789
O    2.4450 -0.7843 1.9947
O    2.8165 1.4058 2.1966
O    2.6434 -0.5219 -2.3069
O    2.2750 1.6152 -1.8316
O    0.5909 -1.0476 -0.3310
O    0.5481 1.0588 0.3504
O    4.2185 0.2347 0.0265
O    4.7310 2.3677 0.2162
O    3.2595 4.7737 0.9122
O    3.2923 4.3659 -1.2417
O    1.6455 -3.6039 0.8105
O    2.1049 -3.5997 -1.3336
C    2.7866 0.2448 2.6248
C    2.4450 0.6723 -2.6188
X    -0.7553 0.3730 -0.0081
X    5.7052 0.6614 0.1891
X    4.2800 5.3223 -0.5108
X    0.9102 -4.4420 -0.2562
X    3.0162 0.1366 3.3390
X    2.4756 0.7271 -3.3679
   0   10 A   
   0   11 A   
   0   20 S   
   1   12 A   
   1   13 A   
   1   21 S   
   2   14 A   
   2   15 A   
   2   22 S   
   3   16 A   
   3   17 A   
   3   23 S   
   4    7 S   
   4    9 S   
   4   11 S   
   4   13 S   
   4   14 S   
   4   15 S   
   5    6 S   
   5    8 S   
   5   10 S   
   5   12 S   
   5   16 S   
   5   17 S   
   6   18 A   
   7   18 A   
   8   19 A   
   9   19 A   
  18   24 S   
  19   25 S   
