35
   27   28   29   30   31   32   33   34
Cd   0.0000 0.0000 0.0000
Cd   -1.5379 -5.8479 4.1126
Cd   -0.7690 -2.9239 2.0563
C    -0.3741 1.9993 -1.7358
C    -1.9878 0.1796 1.8832
C    1.8917 -0.8805 2.2971
C    0.1247 -2.7989 -1.1687
C    -1.1639 -7.8472 5.8485
C    0.4498 -6.0274 2.2294
C    -3.4297 -4.9674 1.8155
C    -1.6626 -3.0489 5.2814
O    -1.6649 -0.9163 1.2881
O    -1.3384 1.2283 1.7411
O    0.2436 -1.5940 -1.5105
O    1.2019 -1.8834 2.5713
O    -1.3691 1.3120 -1.3640
O    1.6657 -0.0045 1.4226
O    0.7871 1.7582 -1.3196
O    -0.0603 -3.2221 -0.0123
O    0.1270 -4.9316 2.8245
O    -0.1996 -7.0762 2.3715
O    -1.7816 -4.2539 5.6232
O    -2.7398 -3.9645 1.5414
O    -0.1689 -7.1599 5.4767
O    -3.2036 -5.8434 2.6900
O    -2.3250 -7.6061 5.4323
O    -1.4777 -2.6258 4.1250
X    -0.6971 2.2990 -2.2173
X    -2.3485 0.4869 2.3315
X    2.7705 -0.6396 2.1692
X    -0.2221 -3.6178 -1.1434
X    -0.8408 -8.1469 6.3300
X    0.8105 -6.3347 1.7811
X    -4.3084 -5.2083 1.9435
X    -1.3159 -2.2301 5.2560
   0   11 S   
   0   12 S   
   0   13 S   
   0   15 S   
   0   16 S   
   0   17 S   
   1   19 S   
   1   20 S   
   1   21 S   
   1   23 S   
   1   24 S   
   1   25 S   
   2   11 S   
   2   14 S   
   2   18 S   
   2   19 S   
   2   22 S   
   2   26 S   
   3   15 A   
   3   17 A   
   3   27 S   
   4   11 S   
   4   12 D   
   4   28 S   
   5   14 A   
   5   16 A   
   5   29 S   
   6   13 A   
   6   18 A   
   6   30 S   
   7   23 A   
   7   25 A   
   7   31 S   
   8   19 S   
   8   20 D   
   8   32 S   
   9   22 A   
   9   24 A   
   9   33 S   
  10   21 A   
  10   26 A   
  10   34 S   
