53
   41   42   43   44   45   46   47   48   49   50   51   52
O    0.0000 0.0000 0.0000
O    -0.5089 1.5016 1.5870
Cd   -1.7825 -1.0761 0.6851
Cd   -1.3847 -4.1362 -1.2249
Cd   -3.4562 5.5551 2.9288
Cd   -3.8540 8.6152 4.8388
C    -2.7266 4.9097 -0.0211
Cd   -2.6194 2.2395 1.8070
O    -1.9199 3.8366 3.3118
O    -2.5972 4.8723 5.1143
O    -4.8422 10.6525 4.8358
O    -5.1485 9.6007 6.7902
C    -2.5121 -0.4308 3.6350
C    -3.2883 -3.8539 0.7818
C    -1.9505 8.3328 2.8322
C    -6.1425 7.2980 3.4993
C    0.2468 1.0497 0.6788
C    0.9038 -2.8191 0.1147
C    -5.4855 3.4292 2.9352
C    -5.2064 10.6332 6.0318
C    -1.9556 3.9398 4.5900
O    -1.9437 -1.2253 2.8577
O    -2.9972 0.6968 3.3864
O    -2.4645 9.4532 3.0077
O    -2.2007 7.3327 3.6266
O    -0.3047 -2.9198 0.4494
O    1.2663 -3.1961 -0.9948
O    -5.2388 4.4790 3.6139
O    -4.7299 2.9773 2.0270
C    -0.0323 -6.1542 -2.4179
C    -3.2832 0.5391 -0.9760
O    -0.0902 -5.1217 -3.1762
O    -0.3966 -6.1735 -1.2218
O    -2.6415 -0.3933 -1.5003
O    -3.3189 0.6424 0.3022
O    -3.2951 5.7043 0.7563
O    -2.2415 3.7821 0.2275
O    -2.7743 -4.9742 0.6062
O    -3.0381 -2.8538 -0.0126
O    -4.9341 7.3988 3.1645
O    -6.5050 7.6751 4.6087
X    -2.5616 5.3249 -0.6048
X    -2.6772 -0.8459 4.2188
X    -3.9999 -4.1413 1.0081
X    -1.2389 8.6203 2.6058
X    -6.3561 6.9860 2.8645
X    0.7760 1.6873 0.8419
X    1.1174 -2.5070 0.7495
X    -6.0148 2.7916 2.7720
X    -5.8787 10.9193 6.0721
X    -1.4850 3.6489 5.1560
X    0.6399 -6.4403 -2.4581
X    -3.7538 0.8301 -1.5420
   0    2 S   
   0   16 A   
   1    7 S   
   1   16 A   
   2   21 S   
   2   25 S   
   2   33 S   
   2   34 S   
   2   38 S   
   3   25 S   
   3   31 S   
   3   32 S   
   3   37 S   
   3   38 S   
   4    8 S   
   4    9 S   
   4   24 S   
   4   27 S   
   4   35 S   
   4   39 S   
   5   10 S   
   5   11 S   
   5   23 S   
   5   24 S   
   5   39 S   
   6   35 A   
   6   36 A   
   6   41 S   
   7    8 S   
   7   22 S   
   7   28 S   
   7   34 S   
   7   36 S   
   8   20 S   
   9   20 D   
  10   19 A   
  11   19 A   
  12   21 A   
  12   22 A   
  12   42 S   
  13   37 D   
  13   38 S   
  13   43 S   
  14   23 D   
  14   24 S   
  14   44 S   
  15   39 S   
  15   40 D   
  15   45 S   
  16   46 S   
  17   25 S   
  17   26 D   
  17   47 S   
  18   27 A   
  18   28 A   
  18   48 S   
  19   49 S   
  20   50 S   
  29   31 A   
  29   32 A   
  29   51 S   
  30   33 D   
  30   34 S   
  30   52 S   
  49   19 S   
  51   29 S   
