12
    8    9   10   11
H    0.0000 0.0000 0.0000
H    4.5566 -0.2440 0.6664
C    3.1252 -0.5082 -0.7245
C    1.7406 -0.4235 -0.9124
C    3.6376 -0.1978 0.5280
C    1.4314 0.2641 1.3909
C    2.8160 0.1795 1.5788
C    0.9190 -0.0462 0.1384
X    3.6045 -0.7582 -1.2178
X    1.3903 -0.6472 -1.5108
X    0.9521 0.5142 1.8842
X    3.1663 0.4032 2.1772
   0    7 S   
   1    4 S   
   2    3 A   
   2    4 A   
   2    8 S   
   3    7 A   
   3    9 S   
   4    6 A   
   5    6 A   
   5    7 A   
   5   10 S   
   6   11 S   
