26
   20   21   22   23   24   25
C    0.0000 0.0000 0.0000
O    -3.4685 -1.4485 -4.3047
O    -0.6525 0.1580 -1.0452
Cd   -2.3310 0.0304 -2.8219
Cd   -0.7961 -2.4043 -1.1814
O    -2.2477 -2.5526 -2.9307
O    0.2343 -1.1606 0.4668
O    -3.7155 -0.0921 -1.0939
C    -3.6057 -1.0061 -0.2233
O    -2.7408 -1.8988 -0.1705
O    0.6613 -3.9982 -0.3998
C    -3.0751 -2.5057 -3.8379
O    -1.3534 -4.7648 -0.6941
O    -1.9692 2.4376 -2.8150
O    0.5764 -1.9685 -2.8718
O    -0.4426 -0.2554 -3.9435
O    -3.3776 1.5928 -4.2377
C    -2.7249 2.5707 -3.7547
C    -0.2008 -4.9007 -0.2679
C    0.4591 -1.1019 -3.8156
X    0.2374 0.4733 0.5407
X    -4.1160 -1.2912 0.2137
X    -3.2856 -3.0917 -4.3216
X    -2.8743 3.3705 -3.7328
X    0.0586 -5.6572 -0.2559
X    0.9960 -0.8562 -4.2373
   0    2 S   
   0    6 D   
   0   20 S   
   1    3 S   
   1   11 D   
   2    3 S   
   2    4 S   
   3    5 S   
   3    7 S   
   3   13 S   
   3   15 S   
   3   16 S   
   4    5 S   
   4    6 S   
   4    9 S   
   4   10 S   
   4   12 S   
   4   14 S   
   5   11 S   
   7    8 A   
   8    9 A   
   8   21 S   
  10   18 A   
  11   22 S   
  12   18 A   
  13   17 A   
  14   19 A   
  15   19 A   
  16   17 A   
  17   23 S   
  18   24 S   
  19   25 S   
