26
   20   21   22   23   24   25
Nd   0.0000 0.0000 0.0000
Nd   4.2849 -1.2519 -0.0186
C    1.8759 -2.3196 -2.0348
C    -1.5548 2.0254 -1.3368
C    2.7063 1.3167 -1.7974
C    2.4091 1.0677 2.0162
C    5.8397 -3.2774 1.3182
C    1.5786 -2.5686 1.7788
O    3.0862 -2.4859 -1.7616
O    1.0882 -1.5449 -1.4326
O    -0.9576 2.3466 -0.2868
O    -1.5686 0.8443 -1.7716
O    3.6359 0.5068 -1.5900
O    1.5684 1.2807 -1.2838
O    1.1988 1.2340 1.7430
O    3.1967 0.2930 1.4140
O    5.2425 -3.5986 0.2682
O    5.8535 -2.0962 1.7530
O    0.6491 -1.7587 1.5714
O    2.7166 -2.5326 1.2652
X    1.9147 -2.4809 -2.6768
X    -1.9198 2.6087 -1.6442
X    2.8726 2.0976 -1.9171
X    2.3703 1.2289 2.6582
X    6.2047 -3.8606 1.6256
X    1.4123 -3.3495 1.8985
   0    9 S   
   0   10 S   
   0   11 S   
   0   13 S   
   0   14 S   
   0   18 S   
   1    8 S   
   1   12 S   
   1   15 S   
   1   16 S   
   1   17 S   
   1   19 S   
   2    8 A   
   2    9 A   
   2   20 S   
   3   10 A   
   3   11 A   
   3   21 S   
   4   12 A   
   4   13 A   
   4   22 S   
   5   14 A   
   5   15 A   
   5   23 S   
   6   16 A   
   6   17 A   
   6   24 S   
   7   18 A   
   7   19 A   
   7   25 S   
