26
   20   21   22   23   24   25
Er   0.0000 0.0000 0.0000
Er   0.4302 -0.2673 4.2050
C    2.6718 -0.2550 1.5086
C    1.3862 1.5861 6.0814
O    0.5719 1.9363 1.1057
O    0.2078 1.8858 3.3122
O    -1.4233 0.0052 1.7561
O    -1.8718 0.0200 3.9118
O    0.2996 -1.6450 -1.8661
O    -1.7094 -1.1949 -1.1214
O    -0.1416 -2.2037 3.0992
O    0.2224 -2.1531 0.8928
C    0.2640 2.4807 2.1900
O    1.8536 -0.2726 2.4489
O    2.3021 -0.2874 0.2932
C    -2.2416 -0.0123 2.6964
O    2.1397 0.9276 5.3264
O    0.1307 1.3776 6.0711
C    -0.9559 -1.8535 -1.8764
C    0.1662 -2.7481 2.0150
X    3.4684 -0.2739 1.2729
X    1.9343 2.1719 6.0848
X    0.1801 3.2169 1.9861
X    -3.0382 0.0066 2.9321
X    -1.5040 -2.4393 -1.8798
X    0.2501 -3.4842 2.2189
   0    4 S   
   0    6 S   
   0    8 S   
   0    9 S   
   0   11 S   
   0   14 S   
   1    5 S   
   1    7 S   
   1   10 S   
   1   13 S   
   1   16 S   
   1   17 S   
   2   13 A   
   2   14 A   
   2   20 S   
   3   16 A   
   3   17 A   
   3   21 S   
   4   12 A   
   5   12 A   
   6   15 A   
   7   15 A   
   8   18 A   
   9   18 A   
  10   19 A   
  11   19 A   
  12   22 S   
  15   23 S   
  18   24 S   
  19   25 S   
