26
   20   21   22   23   24   25
Nd   0.0000 0.0000 0.0000
Nd   3.0426 2.7807 -0.8525
C    0.8049 2.7644 1.8533
C    -2.4830 -0.3719 1.4045
C    2.8586 -0.1536 1.2492
C    2.2377 0.0162 -2.7058
C    5.5256 3.1526 -2.2570
C    0.1840 2.9343 -2.1017
O    0.0643 1.7667 1.6966
O    1.5900 3.2494 1.0033
O    -2.4264 0.4485 0.4515
O    -1.4620 -0.9095 1.8918
O    2.9100 0.7603 0.3915
O    1.7952 -0.7396 1.5398
O    2.9783 1.0140 -2.5491
O    1.4526 -0.4687 -1.8558
O    5.4690 2.3322 -1.3040
O    4.5046 3.6902 -2.7443
O    0.1326 2.0204 -1.2440
O    1.2474 3.5203 -2.3923
X    0.9632 3.1397 2.4422
X    -3.0788 -0.5568 1.9496
X    3.5930 -0.3692 1.2708
X    2.0794 -0.3590 -3.2947
X    6.1214 3.3375 -2.8021
X    -0.5504 3.1499 -2.1233
   0    8 S   
   0   10 S   
   0   11 S   
   0   13 S   
   0   15 S   
   0   18 S   
   1    9 S   
   1   12 S   
   1   14 S   
   1   16 S   
   1   17 S   
   1   19 S   
   2    8 A   
   2    9 A   
   2   20 S   
   3   10 A   
   3   11 A   
   3   21 S   
   4   12 A   
   4   13 A   
   4   22 S   
   5   14 A   
   5   15 A   
   5   23 S   
   6   16 A   
   6   17 A   
   6   24 S   
   7   18 A   
   7   19 A   
   7   25 S   
