35
   27   28   29   30   31   32   33   34
O    0.0000 0.0000 0.0000
Zn   2.1519 -4.8302 -0.2291
O    1.2072 -4.7020 -1.9534
O    0.3932 -2.7187 -1.3398
O    2.3275 1.4618 -1.6469
Zn   1.6261 -1.5848 -0.1660
O    2.2949 -0.7660 -1.8967
Zn   1.1003 1.6606 -0.1030
O    -1.0432 0.7626 -1.8072
C    3.5051 -7.1589 -0.5948
C    4.2589 -3.1997 0.4830
C    2.7138 0.4807 1.8301
C    0.6520 -3.5572 1.9160
C    -0.2529 3.9894 0.2627
C    -1.0067 0.0301 -0.8151
C    0.5384 -3.6503 -2.1621
C    2.6002 0.3876 -2.2481
O    2.6575 -6.6351 0.2078
O    4.0366 -6.5438 -1.5078
O    3.2522 -3.1696 -0.3321
O    4.2954 -3.9321 1.4751
O    2.0450 1.5324 1.6213
O    2.8590 -0.4508 1.0077
O    0.9247 -4.6314 1.3149
O    0.9573 -2.4036 1.5646
O    0.5947 3.4655 -0.5399
O    -0.7844 3.3743 1.1757
X    3.4440 -7.8545 -0.4491
X    4.9710 -3.1352 0.2947
X    3.0617 0.2738 2.4880
X    0.2573 -3.3953 2.5592
X    -0.1918 4.6849 0.1170
X    -1.7188 -0.0344 -0.6267
X    0.1905 -3.4434 -2.8201
X    2.9948 0.2257 -2.8913
   0    5 S   
   0    7 S   
   0   14 S   
   1    2 S   
   1   17 S   
   1   19 S   
   1   23 S   
   2   15 A   
   3    5 S   
   3   15 A   
   4    7 S   
   4   16 A   
   5    6 S   
   5   19 S   
   5   22 S   
   5   24 S   
   6   16 A   
   7   21 S   
   7   25 S   
   8   14 D   
   9   17 S   
   9   18 D   
   9   27 S   
  10   19 S   
  10   20 D   
  10   28 S   
  11   21 A   
  11   22 A   
  11   29 S   
  12   23 A   
  12   24 A   
  12   30 S   
  13   25 S   
  13   26 D   
  13   31 S   
  14   32 S   
  15   33 S   
  16   34 S   
