45
   41   42   43   44
Cu   0.0000 0.0000 0.0000
C    -2.2234 0.6464 1.7845
C    -3.0688 1.3354 2.5571
C    -2.8922 2.6968 2.7473
C    -1.8007 3.2857 2.0945
C    -0.9942 2.5213 1.3350
C    2.3041 1.7389 -0.3463
C    2.0802 1.0631 1.8124
H    -3.8169 0.7399 -2.9740
H    -3.5096 -3.0508 -1.7504
C    3.8656 2.5180 1.2514
C    3.3914 2.4885 -0.0707
H    2.3597 -1.6746 0.2672
H    3.7794 -2.9688 -0.8990
H    1.6366 -2.1847 -4.1977
H    0.2684 -0.9135 -2.9215
C    3.2051 1.7782 2.1716
H    -2.0176 1.2304 -1.7094
H    -1.6311 -2.4668 -0.5808
H    -2.3597 -0.2672 1.6746
H    -3.7794 0.8990 2.9688
H    -1.6366 4.1977 2.1847
H    -0.2684 2.9215 0.9135
H    2.0176 1.7094 -1.2304
N    1.1889 -1.1644 -1.2255
H    1.6311 0.5808 2.4668
N    -1.6088 -0.5510 -1.0368
H    3.8169 2.9740 -0.7399
N    -1.1889 1.2255 1.1644
H    3.5096 1.7504 3.0508
N    1.6088 1.0368 0.5510
C    -3.8656 -1.2514 -2.5180
C    -3.3914 0.0707 -2.4885
C    -3.2051 -2.1716 -1.7782
C    2.2234 -1.7845 -0.6464
C    3.0688 -2.5571 -1.3354
C    2.8922 -2.7473 -2.6968
C    1.8007 -2.0945 -3.2857
C    0.9942 -1.3350 -2.5213
C    -2.3041 0.3463 -1.7389
C    -2.0802 -1.8124 -1.0631
X    -3.3254 3.0831 3.1763
X    4.4531 2.9002 1.4138
X    -4.4531 -1.4138 -2.9002
X    3.3254 -3.1763 -3.0831
   0   24 S   
   0   26 S   
   0   28 S   
   0   30 S   
   1    2 A   
   1   19 S   
   1   28 A   
   2    3 A   
   2   20 S   
   3    4 A   
   3   41 S   
   4    5 A   
   4   21 S   
   5   22 S   
   5   28 A   
   6   11 A   
   6   23 S   
   6   30 A   
   7   16 A   
   7   25 S   
   7   30 A   
   8   32 S   
   9   33 S   
  10   11 A   
  10   16 A   
  10   42 S   
  11   27 S   
  12   34 S   
  13   35 S   
  14   37 S   
  15   38 S   
  16   29 S   
  17   39 S   
  18   40 S   
  24   34 A   
  24   38 A   
  26   39 A   
  26   40 A   
  31   32 A   
  31   33 A   
  31   43 S   
  32   39 A   
  33   40 A   
  34   35 A   
  35   36 A   
  36   37 A   
  36   44 S   
  37   38 A   
